# generated using pymatgen
data_Ga2O3
_symmetry_space_group_name_H-M   'P 1'
_cell_length_a   12.28047342
_cell_length_b   3.04756735
_cell_length_c   5.81741012
_cell_angle_alpha   90.00000000
_cell_angle_beta   103.76434361
_cell_angle_gamma   90.00000000
_symmetry_Int_Tables_number   1
_chemical_formula_structural   Ga2O3
_chemical_formula_sum   'Ga8 O12'
_cell_volume   211.46752587
_cell_formula_units_Z   4
loop_
 _symmetry_equiv_pos_site_id
 _symmetry_equiv_pos_as_xyz
  1  'x, y, z'
loop_
 _atom_type_symbol
 _atom_type_oxidation_number
  Ga3+  3.0
  O2-  -2.0
loop_
 _atom_site_type_symbol
 _atom_site_label
 _atom_site_symmetry_multiplicity
 _atom_site_fract_x
 _atom_site_fract_y
 _atom_site_fract_z
 _atom_site_occupancy
  Ga3+  Ga0  1  0.65883830  0.00000000  0.31473034  1
  Ga3+  Ga1  1  0.84116170  0.50000000  0.68526966  1
  Ga3+  Ga2  1  0.59047440  0.50000000  0.79478600  1
  Ga3+  Ga3  1  0.90952560  0.00000000  0.20521400  1
  Ga3+  Ga4  1  0.15883830  0.50000000  0.31473034  1
  Ga3+  Ga5  1  0.34116170  0.00000000  0.68526966  1
  Ga3+  Ga6  1  0.09047440  0.00000000  0.79478600  1
  Ga3+  Ga7  1  0.40952560  0.50000000  0.20521400  1
  O2-  O8  1  0.99646913  0.50000000  0.25666409  1
  O2-  O9  1  0.50353087  0.00000000  0.74333591  1
  O2-  O10  1  0.67337106  0.50000000  0.56323016  1
  O2-  O11  1  0.82662894  0.00000000  0.43676984  1
  O2-  O12  1  0.83549502  0.00000000  0.89084592  1
  O2-  O13  1  0.66450498  0.50000000  0.10915408  1
  O2-  O14  1  0.49646913  0.00000000  0.25666409  1
  O2-  O15  1  0.00353087  0.50000000  0.74333591  1
  O2-  O16  1  0.17337106  0.00000000  0.56323016  1
  O2-  O17  1  0.32662894  0.50000000  0.43676984  1
  O2-  O18  1  0.33549502  0.50000000  0.89084592  1
  O2-  O19  1  0.16450498  0.00000000  0.10915408  1
